LTspice 24.1.4 for Windows
Circuit: D:\TEC\V Semestre\Circuitos Discretos\Proyecto\Proyecto_Discretos\proyecto\Proyecto_OPAMP_C5\opamp-top.net
Start Time: Thu Jun 11 20:56:02 2026
Ignoring BSIM parameter XL
Ignoring BSIM parameter XW
Ignoring BSIM parameter XL
Ignoring BSIM parameter XW
solver = Normal
Maximum thread count: 12
tnom = 27
temp = 27
method = trap
WARNING: Node x1:nc_01 is floating.

Warning: Pd = 0 is less than W.
Warning: Ps = 0 is less than W.
Warning: Pd = 0 is less than W.
Warning: Ps = 0 is less than W.
Warning: Pd = 0 is less than W.
Warning: Ps = 0 is less than W.
Warning: Pd = 0 is less than W.
Warning: Ps = 0 is less than W.
Direct Newton iteration for .op point succeeded.
Total elapsed time: 11.892 seconds.

Files loaded:
D:\TEC\V Semestre\Circuitos Discretos\Proyecto\Proyecto_Discretos\proyecto\Proyecto_OPAMP_C5\opamp-top.net
C:\Users\Jeibi\AppData\Local\LTspice\lib\cmp\standard.mos
D:\TEC\V Semestre\Circuitos Discretos\Proyecto\Proyecto_Discretos\proyecto\Proyecto_OPAMP_C5\C5_models.txt

