LTspice 24.1.6 for Windows
Circuit: C:\Users\adopa\OneDrive - Estudiantes ITCR\Escritorio\ㅤ\TEC\V_semestre\Circuitos discretos\proyectodiscr\Proyecto_Discretos\proyecto\sim-m7\opamp-top.net
Start Time: Tue Jun  2 21:52:27 2026
Ignoring BSIM parameter XL
Ignoring BSIM parameter XW
Ignoring BSIM parameter XL
Ignoring BSIM parameter XW
solver = Normal
Maximum thread count: 12
tnom = 27
temp = 27
method = trap
Warning: Pd = 0 is less than W.
Warning: Ps = 0 is less than W.
Warning: Pd = 0 is less than W.
Warning: Ps = 0 is less than W.
Warning: Pd = 0 is less than W.
Warning: Ps = 0 is less than W.
Warning: Pd = 0 is less than W.
Warning: Ps = 0 is less than W.
Direct Newton iteration for .op point succeeded.
Total elapsed time: 15.913 seconds.

Files loaded:
C:\Users\adopa\OneDrive - Estudiantes ITCR\Escritorio\ㅤ\TEC\V_semestre\Circuitos discretos\proyectodiscr\Proyecto_Discretos\proyecto\sim-m7\opamp-top.net
C:\Users\adopa\AppData\Local\LTspice\lib\cmp\standard.mos
C:\Users\adopa\OneDrive - Estudiantes ITCR\Escritorio\ㅤ\TEC\V_semestre\Circuitos discretos\proyectodiscr\Proyecto_Discretos\proyecto\sim-m7\C5_models.txt

