LTspice 24.1.4 for Windows
Circuit: D:\TEC\V Semestre\Circuitos Discretos\Proyecto\Proyecto_Discretos\proyecto\sim-rf\opamp-top.net
Start Time: Thu Jun 11 20:43:08 2026
Ignoring BSIM parameter XL
Ignoring BSIM parameter XW
Ignoring BSIM parameter XL
Ignoring BSIM parameter XW
solver = Normal
Maximum thread count: 12
tnom = 27
temp = 27
method = trap
Warning: Pd = 0 is less than W.
Warning: Ps = 0 is less than W.
Warning: Pd = 0 is less than W.
Warning: Ps = 0 is less than W.
Warning: Pd = 0 is less than W.
Warning: Ps = 0 is less than W.
Warning: Pd = 0 is less than W.
Warning: Ps = 0 is less than W.
Direct Newton iteration for .op point succeeded.
Total elapsed time: 0.614 seconds.

Files loaded:
D:\TEC\V Semestre\Circuitos Discretos\Proyecto\Proyecto_Discretos\proyecto\sim-rf\opamp-top.net
C:\Users\Jeibi\AppData\Local\LTspice\lib\cmp\standard.mos
D:\TEC\V Semestre\Circuitos Discretos\Proyecto\Proyecto_Discretos\proyecto\sim-rf\C5_models.txt

